Version 4
SHEET 1 880 680
WIRE 304 112 96 112
WIRE 432 112 384 112
WIRE 528 112 432 112
WIRE 608 112 528 112
WIRE 736 112 688 112
WIRE 736 128 736 112
WIRE 96 144 96 112
WIRE 432 176 432 112
WIRE 528 208 528 192
WIRE 528 208 496 208
WIRE 784 208 736 208
WIRE 96 224 80 224
WIRE 528 224 528 208
WIRE 96 288 96 224
WIRE 304 288 96 288
WIRE 432 288 432 240
WIRE 432 288 384 288
WIRE 528 288 432 288
WIRE 608 288 528 288
WIRE 736 288 688 288
FLAG 96 288 0
FLAG 496 208 0
FLAG 784 208 0
SYMBOL ind 400 96 R90
WINDOW 0 5 56 VBottom 2
WINDOW 3 32 56 VTop 2
SYMATTR InstName L1
SYMATTR Value 270n
SYMBOL cap 416 176 R0
SYMATTR InstName C1
SYMATTR Value 55p
SYMBOL ind 400 272 R90
WINDOW 0 5 56 VBottom 2
WINDOW 3 32 56 VTop 2
SYMATTR InstName L2
SYMATTR Value 270n
SYMBOL voltage 96 128 R0
WINDOW 123 24 124 Left 2
WINDOW 39 0 0 Left 0
SYMATTR InstName V1
SYMATTR Value ""
SYMATTR Value2 AC 1
SYMBOL res 512 96 R0
SYMATTR InstName R1
SYMATTR Value 50
SYMBOL res 512 192 R0
SYMATTR InstName R2
SYMATTR Value 50
SYMBOL res 704 96 R90
WINDOW 0 0 56 VBottom 2
WINDOW 3 32 56 VTop 2
SYMATTR InstName R3
SYMATTR Value 500
SYMBOL res 704 272 R90
WINDOW 0 0 56 VBottom 2
WINDOW 3 32 56 VTop 2
SYMATTR InstName R4
SYMATTR Value 500
SYMBOL res 752 224 R180
WINDOW 0 36 76 Left 2
WINDOW 3 36 40 Left 2
SYMATTR InstName R5
SYMATTR Value 1000
SYMBOL res 752 304 R180
WINDOW 0 36 76 Left 2
WINDOW 3 36 40 Left 2
SYMATTR InstName R6
SYMATTR Value 1000
TEXT 584 352 Left 2 !.ac dec 100 10k 1G
